examples/tesp-pcs/files/R4-12.47-2_processed.glm
clock {
     timezone EST+5EDT;
  timestamp '2010-06-01 00:00:00';
  stoptime '2010-06-03 00:00:00';
}
#set profiler=1
module tape;
module powerflow{
     solver_method NR;
      default_maximum_voltage_error 1e-6;
};
#ifdef WANT_VI_DUMP
#endif
module climate;
module generators;
module connection;
module residential {
  implicit_enduses NONE;
};
#include "../../../../support/schedules/appliance_schedules.glm";
#include "../../../../support/schedules/water_and_setpoint_schedule_v5.glm";
#include "../../../../support/schedules/commercial_schedules.glm";
#set minimum_timestep=15;
#set relax_naming_rules=1;
#set warn=0;
object metrics_collector_writer {
  interval 300;
  interim 43200;
  filename ${METRICS_FILE};
  // filename R4-12.47-2_processed_metrics.json;
};
object climate {
  name localWeather;
  // tmyfile "../../../../support/weather/AZ-Tucson_International_Ap.tmy3";
  // agent name weather
  interpolate QUADRATIC;
  latitude 30.0;
  longitude -110.0;
  // altitude 0.0;
  tz_meridian 0.0;
};
// default IEEE 1547-2018 settings for Category B
#define INV_VBASE=240.0
#define INV_V1=0.92
#define INV_V2=0.98
#define INV_V3=1.02
#define INV_V4=1.08
#define INV_Q1=0.44
#define INV_Q2=0.00
#define INV_Q3=0.00
#define INV_Q4=-0.44
#define INV_VIN=200.0
#define INV_IIN=32.5
#define INV_VVLOCKOUT=300.0
#define INV_VW_V1=1.05 // 1.05833
#define INV_VW_V2=1.10
#define INV_VW_P1=1.0
#define INV_VW_P2=0.0
#ifdef WANT_VI_DUMP
object voltdump {
  filename Voltage_Dump_R4-12.47-2_processed.csv;
  mode polar;
}
object currdump {
  filename Current_Dump_R4-12.47-2_processed.csv;
  mode polar;
}
#endif // &&& end of common section for combining TESP cases
// solar inverter mode on this feeder
#define INVERTER_MODE=CONSTANT_PF
object transformer_configuration {
  name XF1_POLETOP_CS_10;
  power_rating 10.00;
  powerA_rating 0.0;
  powerB_rating 0.0;
  powerC_rating 10.00;
  install_type POLETOP;
  connect_type SINGLE_PHASE_CENTER_TAPPED;
  primary_voltage 7200.0;
  secondary_voltage 120.0;
  resistance 0.00950;
  resistance1 0.01900;
  resistance2 0.01900;
  reactance 0.01040;
  reactance1 0.00520;
  reactance2 0.00520;
  shunt_resistance 147.06;
  shunt_reactance 34.25;
}
object transformer_configuration {
  name XF1_POLETOP_AS_15;
  power_rating 15.00;
  powerA_rating 15.00;
  powerB_rating 0.0;
  powerC_rating 0.0;
  install_type POLETOP;
  connect_type SINGLE_PHASE_CENTER_TAPPED;
  primary_voltage 7200.0;
  secondary_voltage 120.0;
  resistance 0.00850;
  resistance1 0.01700;
  resistance2 0.01700;
  reactance 0.01176;
  reactance1 0.00588;
  reactance2 0.00588;
  shunt_resistance 166.67;
  shunt_reactance 39.53;
}
object transformer_configuration {
  name XF1_POLETOP_BS_15;
  power_rating 15.00;
  powerA_rating 0.0;
  powerB_rating 15.00;
  powerC_rating 0.0;
  install_type POLETOP;
  connect_type SINGLE_PHASE_CENTER_TAPPED;
  primary_voltage 7200.0;
  secondary_voltage 120.0;
  resistance 0.00850;
  resistance1 0.01700;
  resistance2 0.01700;
  reactance 0.01176;
  reactance1 0.00588;
  reactance2 0.00588;
  shunt_resistance 166.67;
  shunt_reactance 39.53;
}
object transformer_configuration {
  name XF1_POLETOP_AS_10;
  power_rating 10.00;
  powerA_rating 10.00;
  powerB_rating 0.0;
  powerC_rating 0.0;
  install_type POLETOP;
  connect_type SINGLE_PHASE_CENTER_TAPPED;
  primary_voltage 7200.0;
  secondary_voltage 120.0;
  resistance 0.00950;
  resistance1 0.01900;
  resistance2 0.01900;
  reactance 0.01040;
  reactance1 0.00520;
  reactance2 0.00520;
  shunt_resistance 147.06;
  shunt_reactance 34.25;
}
object transformer_configuration {
  name XF1_POLETOP_CS_5;
  power_rating 5.00;
  powerA_rating 0.0;
  powerB_rating 0.0;
  powerC_rating 5.00;
  install_type POLETOP;
  connect_type SINGLE_PHASE_CENTER_TAPPED;
  primary_voltage 7200.0;
  secondary_voltage 120.0;
  resistance 0.01050;
  resistance1 0.02100;
  resistance2 0.02100;
  reactance 0.01224;
  reactance1 0.00612;
  reactance2 0.00612;
  shunt_resistance 111.11;
  shunt_reactance 29.59;
}
object transformer_configuration {
  name XF1_POLETOP_BS_5;
  power_rating 5.00;
  powerA_rating 0.0;
  powerB_rating 5.00;
  powerC_rating 0.0;
  install_type POLETOP;
  connect_type SINGLE_PHASE_CENTER_TAPPED;
  primary_voltage 7200.0;
  secondary_voltage 120.0;
  resistance 0.01050;
  resistance1 0.02100;
  resistance2 0.02100;
  reactance 0.01224;
  reactance1 0.00612;
  reactance2 0.00612;
  shunt_resistance 111.11;
  shunt_reactance 29.59;
}
object transformer_configuration {
  name XF1_POLETOP_BS_10;
  power_rating 10.00;
  powerA_rating 0.0;
  powerB_rating 10.00;
  powerC_rating 0.0;
  install_type POLETOP;
  connect_type SINGLE_PHASE_CENTER_TAPPED;
  primary_voltage 7200.0;
  secondary_voltage 120.0;
  resistance 0.00950;
  resistance1 0.01900;
  resistance2 0.01900;
  reactance 0.01040;
  reactance1 0.00520;
  reactance2 0.00520;
  shunt_resistance 147.06;
  shunt_reactance 34.25;
}
object transformer_configuration {
  name XF1_POLETOP_AS_5;
  power_rating 5.00;
  powerA_rating 5.00;
  powerB_rating 0.0;
  powerC_rating 0.0;
  install_type POLETOP;
  connect_type SINGLE_PHASE_CENTER_TAPPED;
  primary_voltage 7200.0;
  secondary_voltage 120.0;
  resistance 0.01050;
  resistance1 0.02100;
  resistance2 0.02100;
  reactance 0.01224;
  reactance1 0.00612;
  reactance2 0.00612;
  shunt_resistance 111.11;
  shunt_reactance 29.59;
}
object transformer_configuration {
  name XF1_POLETOP_CS_15;
  power_rating 15.00;
  powerA_rating 0.0;
  powerB_rating 0.0;
  powerC_rating 15.00;
  install_type POLETOP;
  connect_type SINGLE_PHASE_CENTER_TAPPED;
  primary_voltage 7200.0;
  secondary_voltage 120.0;
  resistance 0.00850;
  resistance1 0.01700;
  resistance2 0.01700;
  reactance 0.01176;
  reactance1 0.00588;
  reactance2 0.00588;
  shunt_resistance 166.67;
  shunt_reactance 39.53;
}
object transformer_configuration {
  name XF1_POLETOP_AS_25;
  power_rating 25.00;
  powerA_rating 25.00;
  powerB_rating 0.0;
  powerC_rating 0.0;
  install_type POLETOP;
  connect_type SINGLE_PHASE_CENTER_TAPPED;
  primary_voltage 7200.0;
  secondary_voltage 120.0;
  resistance 0.00800;
  resistance1 0.01600;
  resistance2 0.01600;
  reactance 0.01208;
  reactance1 0.00604;
  reactance2 0.00604;
  shunt_resistance 192.31;
  shunt_reactance 51.81;
}
object transformer_configuration {
  name XF1_POLETOP_AS_37p5;
  power_rating 37.50;
  powerA_rating 37.50;
  powerB_rating 0.0;
  powerC_rating 0.0;
  install_type POLETOP;
  connect_type SINGLE_PHASE_CENTER_TAPPED;
  primary_voltage 7200.0;
  secondary_voltage 120.0;
  resistance 0.00725;
  resistance1 0.01450;
  resistance2 0.01450;
  reactance 0.01320;
  reactance1 0.00660;
  reactance2 0.00660;
  shunt_resistance 212.77;
  shunt_reactance 57.47;
}
object transformer_configuration {
  name XF1_POLETOP_BS_25;
  power_rating 25.00;
  powerA_rating 0.0;
  powerB_rating 25.00;
  powerC_rating 0.0;
  install_type POLETOP;
  connect_type SINGLE_PHASE_CENTER_TAPPED;
  primary_voltage 7200.0;
  secondary_voltage 120.0;
  resistance 0.00800;
  resistance1 0.01600;
  resistance2 0.01600;
  reactance 0.01208;
  reactance1 0.00604;
  reactance2 0.00604;
  shunt_resistance 192.31;
  shunt_reactance 51.81;
}
object transformer_configuration {
  name XF1_POLETOP_BS_50;
  power_rating 50.00;
  powerA_rating 0.0;
  powerB_rating 50.00;
  powerC_rating 0.0;
  install_type POLETOP;
  connect_type SINGLE_PHASE_CENTER_TAPPED;
  primary_voltage 7200.0;
  secondary_voltage 120.0;
  resistance 0.00650;
  resistance1 0.01300;
  resistance2 0.01300;
  reactance 0.01416;
  reactance1 0.00708;
  reactance2 0.00708;
  shunt_resistance 222.22;
  shunt_reactance 64.94;
}
object transformer_configuration {
  name XF1_POLETOP_BS_37p5;
  power_rating 37.50;
  powerA_rating 0.0;
  powerB_rating 37.50;
  powerC_rating 0.0;
  install_type POLETOP;
  connect_type SINGLE_PHASE_CENTER_TAPPED;
  primary_voltage 7200.0;
  secondary_voltage 120.0;
  resistance 0.00725;
  resistance1 0.01450;
  resistance2 0.01450;
  reactance 0.01320;
  reactance1 0.00660;
  reactance2 0.00660;
  shunt_resistance 212.77;
  shunt_reactance 57.47;
}
object transformer_configuration {
  name XF1_PADMOUNT_BS_75;
  power_rating 75.00;
  powerA_rating 0.0;
  powerB_rating 75.00;
  powerC_rating 0.0;
  install_type PADMOUNT;
  connect_type SINGLE_PHASE_CENTER_TAPPED;
  primary_voltage 7200.0;
  secondary_voltage 120.0;
  resistance 0.00625;
  resistance1 0.01250;
  resistance2 0.01250;
  reactance 0.01352;
  reactance1 0.00676;
  reactance2 0.00676;
  shunt_resistance 238.10;
  shunt_reactance 67.11;
}
object transformer_configuration {
  name XF1_PADMOUNT_CS_37p5;
  power_rating 37.50;
  powerA_rating 0.0;
  powerB_rating 0.0;
  powerC_rating 37.50;
  install_type PADMOUNT;
  connect_type SINGLE_PHASE_CENTER_TAPPED;
  primary_voltage 7200.0;
  secondary_voltage 120.0;
  resistance 0.00725;
  resistance1 0.01450;
  resistance2 0.01450;
  reactance 0.01320;
  reactance1 0.00660;
  reactance2 0.00660;
  shunt_resistance 212.77;
  shunt_reactance 57.47;
}
object transformer_configuration {
  name XF1_PADMOUNT_CS_25;
  power_rating 25.00;
  powerA_rating 0.0;
  powerB_rating 0.0;
  powerC_rating 25.00;
  install_type PADMOUNT;
  connect_type SINGLE_PHASE_CENTER_TAPPED;
  primary_voltage 7200.0;
  secondary_voltage 120.0;
  resistance 0.00800;
  resistance1 0.01600;
  resistance2 0.01600;
  reactance 0.01208;
  reactance1 0.00604;
  reactance2 0.00604;
  shunt_resistance 192.31;
  shunt_reactance 51.81;
}
object transformer_configuration {
  name XF1_PADMOUNT_CS_75;
  power_rating 75.00;
  powerA_rating 0.0;
  powerB_rating 0.0;
  powerC_rating 75.00;
  install_type PADMOUNT;
  connect_type SINGLE_PHASE_CENTER_TAPPED;
  primary_voltage 7200.0;
  secondary_voltage 120.0;
  resistance 0.00625;
  resistance1 0.01250;
  resistance2 0.01250;
  reactance 0.01352;
  reactance1 0.00676;
  reactance2 0.00676;
  shunt_resistance 238.10;
  shunt_reactance 67.11;
}
object transformer_configuration {
  name XF1_PADMOUNT_BS_25;
  power_rating 25.00;
  powerA_rating 0.0;
  powerB_rating 25.00;
  powerC_rating 0.0;
  install_type PADMOUNT;
  connect_type SINGLE_PHASE_CENTER_TAPPED;
  primary_voltage 7200.0;
  secondary_voltage 120.0;
  resistance 0.00800;
  resistance1 0.01600;
  resistance2 0.01600;
  reactance 0.01208;
  reactance1 0.00604;
  reactance2 0.00604;
  shunt_resistance 192.31;
  shunt_reactance 51.81;
}
object transformer_configuration {
  name XF1_PADMOUNT_BS_37p5;
  power_rating 37.50;
  powerA_rating 0.0;
  powerB_rating 37.50;
  powerC_rating 0.0;
  install_type PADMOUNT;
  connect_type SINGLE_PHASE_CENTER_TAPPED;
  primary_voltage 7200.0;
  secondary_voltage 120.0;
  resistance 0.00725;
  resistance1 0.01450;
  resistance2 0.01450;
  reactance 0.01320;
  reactance1 0.00660;
  reactance2 0.00660;
  shunt_resistance 212.77;
  shunt_reactance 57.47;
}
object transformer_configuration {
  name XF1_PADMOUNT_BS_5;
  power_rating 5.00;
  powerA_rating 0.0;
  powerB_rating 5.00;
  powerC_rating 0.0;
  install_type PADMOUNT;
  connect_type SINGLE_PHASE_CENTER_TAPPED;
  primary_voltage 7200.0;
  secondary_voltage 120.0;
  resistance 0.01050;
  resistance1 0.02100;
  resistance2 0.02100;
  reactance 0.01224;
  reactance1 0.00612;
  reactance2 0.00612;
  shunt_resistance 111.11;
  shunt_reactance 29.59;
}
object transformer_configuration {
  name XF1_PADMOUNT_AS_5;
  power_rating 5.00;
  powerA_rating 5.00;
  powerB_rating 0.0;
  powerC_rating 0.0;
  install_type PADMOUNT;
  connect_type SINGLE_PHASE_CENTER_TAPPED;
  primary_voltage 7200.0;
  secondary_voltage 120.0;
  resistance 0.01050;
  resistance1 0.02100;
  resistance2 0.02100;
  reactance 0.01224;
  reactance1 0.00612;
  reactance2 0.00612;
  shunt_resistance 111.11;
  shunt_reactance 29.59;
}
object transformer_configuration {
  name XF1_PADMOUNT_BS_15;
  power_rating 15.00;
  powerA_rating 0.0;
  powerB_rating 15.00;
  powerC_rating 0.0;
  install_type PADMOUNT;
  connect_type SINGLE_PHASE_CENTER_TAPPED;
  primary_voltage 7200.0;
  secondary_voltage 120.0;
  resistance 0.00850;
  resistance1 0.01700;
  resistance2 0.01700;
  reactance 0.01176;
  reactance1 0.00588;
  reactance2 0.00588;
  shunt_resistance 166.67;
  shunt_reactance 39.53;
}
object transformer_configuration {
  name XF1_PADMOUNT_AS_25;
  power_rating 25.00;
  powerA_rating 25.00;
  powerB_rating 0.0;
  powerC_rating 0.0;
  install_type PADMOUNT;
  connect_type SINGLE_PHASE_CENTER_TAPPED;
  primary_voltage 7200.0;
  secondary_voltage 120.0;
  resistance 0.00800;
  resistance1 0.01600;
  resistance2 0.01600;
  reactance 0.01208;
  reactance1 0.00604;
  reactance2 0.00604;
  shunt_resistance 192.31;
  shunt_reactance 51.81;
}
object transformer_configuration {
  name XF1_PADMOUNT_CS_10;
  power_rating 10.00;
  powerA_rating 0.0;
  powerB_rating 0.0;
  powerC_rating 10.00;
  install_type PADMOUNT;
  connect_type SINGLE_PHASE_CENTER_TAPPED;
  primary_voltage 7200.0;
  secondary_voltage 120.0;
  resistance 0.00950;
  resistance1 0.01900;
  resistance2 0.01900;
  reactance 0.01040;
  reactance1 0.00520;
  reactance2 0.00520;
  shunt_resistance 147.06;
  shunt_reactance 34.25;
}
object transformer_configuration {
  name XF1_PADMOUNT_CS_5;
  power_rating 5.00;
  powerA_rating 0.0;
  powerB_rating 0.0;
  powerC_rating 5.00;
  install_type PADMOUNT;
  connect_type SINGLE_PHASE_CENTER_TAPPED;
  primary_voltage 7200.0;
  secondary_voltage 120.0;
  resistance 0.01050;
  resistance1 0.02100;
  resistance2 0.02100;
  reactance 0.01224;
  reactance1 0.00612;
  reactance2 0.00612;
  shunt_resistance 111.11;
  shunt_reactance 29.59;
}
object transformer_configuration {
  name XF1_PADMOUNT_AS_15;
  power_rating 15.00;
  powerA_rating 15.00;
  powerB_rating 0.0;
  powerC_rating 0.0;
  install_type PADMOUNT;
  connect_type SINGLE_PHASE_CENTER_TAPPED;
  primary_voltage 7200.0;
  secondary_voltage 120.0;
  resistance 0.00850;
  resistance1 0.01700;
  resistance2 0.01700;
  reactance 0.01176;
  reactance1 0.00588;
  reactance2 0.00588;
  shunt_resistance 166.67;
  shunt_reactance 39.53;
}
object transformer_configuration {
  name XF1_PADMOUNT_CS_15;
  power_rating 15.00;
  powerA_rating 0.0;
  powerB_rating 0.0;
  powerC_rating 15.00;
  install_type PADMOUNT;
  connect_type SINGLE_PHASE_CENTER_TAPPED;
  primary_voltage 7200.0;
  secondary_voltage 120.0;
  resistance 0.00850;
  resistance1 0.01700;
  resistance2 0.01700;
  reactance 0.01176;
  reactance1 0.00588;
  reactance2 0.00588;
  shunt_resistance 166.67;
  shunt_reactance 39.53;
}
object transformer_configuration {
  name XF1_PADMOUNT_BS_10;
  power_rating 10.00;
  powerA_rating 0.0;
  powerB_rating 10.00;
  powerC_rating 0.0;
  install_type PADMOUNT;
  connect_type SINGLE_PHASE_CENTER_TAPPED;
  primary_voltage 7200.0;
  secondary_voltage 120.0;
  resistance 0.00950;
  resistance1 0.01900;
  resistance2 0.01900;
  reactance 0.01040;
  reactance1 0.00520;
  reactance2 0.00520;
  shunt_resistance 147.06;
  shunt_reactance 34.25;
}
object transformer_configuration {
  name XF1_PADMOUNT_AS_10;
  power_rating 10.00;
  powerA_rating 10.00;
  powerB_rating 0.0;
  powerC_rating 0.0;
  install_type PADMOUNT;
  connect_type SINGLE_PHASE_CENTER_TAPPED;
  primary_voltage 7200.0;
  secondary_voltage 120.0;
  resistance 0.00950;
  resistance1 0.01900;
  resistance2 0.01900;
  reactance 0.01040;
  reactance1 0.00520;
  reactance2 0.00520;
  shunt_resistance 147.06;
  shunt_reactance 34.25;
}
object transformer_configuration {
  name XF1_PADMOUNT_AS_37p5;
  power_rating 37.50;
  powerA_rating 37.50;
  powerB_rating 0.0;
  powerC_rating 0.0;
  install_type PADMOUNT;
  connect_type SINGLE_PHASE_CENTER_TAPPED;
  primary_voltage 7200.0;
  secondary_voltage 120.0;
  resistance 0.00725;
  resistance1 0.01450;
  resistance2 0.01450;
  reactance 0.01320;
  reactance1 0.00660;
  reactance2 0.00660;
  shunt_resistance 212.77;
  shunt_reactance 57.47;
}
object transformer_configuration {
  name XF1_POLETOP_AS_50;
  power_rating 50.00;
  powerA_rating 50.00;
  powerB_rating 0.0;
  powerC_rating 0.0;
  install_type POLETOP;
  connect_type SINGLE_PHASE_CENTER_TAPPED;
  primary_voltage 7200.0;
  secondary_voltage 120.0;
  resistance 0.00650;
  resistance1 0.01300;
  resistance2 0.01300;
  reactance 0.01416;
  reactance1 0.00708;
  reactance2 0.00708;
  shunt_resistance 222.22;
  shunt_reactance 64.94;
}
object transformer_configuration {
  name XF1_POLETOP_CS_50;
  power_rating 50.00;
  powerA_rating 0.0;
  powerB_rating 0.0;
  powerC_rating 50.00;
  install_type POLETOP;
  connect_type SINGLE_PHASE_CENTER_TAPPED;
  primary_voltage 7200.0;
  secondary_voltage 120.0;
  resistance 0.00650;
  resistance1 0.01300;
  resistance2 0.01300;
  reactance 0.01416;
  reactance1 0.00708;
  reactance2 0.00708;
  shunt_resistance 222.22;
  shunt_reactance 64.94;
}
object transformer_configuration {
  name XF1_POLETOP_CS_37p5;
  power_rating 37.50;
  powerA_rating 0.0;
  powerB_rating 0.0;
  powerC_rating 37.50;
  install_type POLETOP;
  connect_type SINGLE_PHASE_CENTER_TAPPED;
  primary_voltage 7200.0;
  secondary_voltage 120.0;
  resistance 0.00725;
  resistance1 0.01450;
  resistance2 0.01450;
  reactance 0.01320;
  reactance1 0.00660;
  reactance2 0.00660;
  shunt_resistance 212.77;
  shunt_reactance 57.47;
}
object transformer_configuration {
  name XF1_POLETOP_CS_25;
  power_rating 25.00;
  powerA_rating 0.0;
  powerB_rating 0.0;
  powerC_rating 25.00;
  install_type POLETOP;
  connect_type SINGLE_PHASE_CENTER_TAPPED;
  primary_voltage 7200.0;
  secondary_voltage 120.0;
  resistance 0.00800;
  resistance1 0.01600;
  resistance2 0.01600;
  reactance 0.01208;
  reactance1 0.00604;
  reactance2 0.00604;
  shunt_resistance 192.31;
  shunt_reactance 51.81;
}
object transformer_configuration {
  name XF1_POLETOP_AN_10;
  power_rating 10.00;
  powerA_rating 10.00;
  powerB_rating 0.0;
  powerC_rating 0.0;
  install_type POLETOP;
  connect_type WYE_WYE;
  primary_voltage 12470.0;
  secondary_voltage 208.0;
  resistance 0.01900;
  reactance 0.01770;
  shunt_resistance 126.58;
  shunt_reactance 22.57;
}
object transformer_configuration {
  name XF2_POLETOP_ABN_30;
  power_rating 30.00;
  powerA_rating 15.00;
  powerB_rating 15.00;
  powerC_rating 0.0;
  install_type POLETOP;
  connect_type WYE_WYE;
  primary_voltage 12470.0;
  secondary_voltage 208.0;
  resistance 0.01900;
  reactance 0.01770;
  shunt_resistance 126.58;
  shunt_reactance 22.57;
}
object transformer_configuration {
  name XF1_POLETOP_BN_10;
  power_rating 10.00;
  powerA_rating 0.0;
  powerB_rating 10.00;
  powerC_rating 0.0;
  install_type POLETOP;
  connect_type WYE_WYE;
  primary_voltage 12470.0;
  secondary_voltage 208.0;
  resistance 0.01900;
  reactance 0.01770;
  shunt_resistance 126.58;
  shunt_reactance 22.57;
}
object transformer_configuration {
  name XF1_POLETOP_BN_5;
  power_rating 5.00;
  powerA_rating 0.0;
  powerB_rating 5.00;
  powerC_rating 0.0;
  install_type POLETOP;
  connect_type WYE_WYE;
  primary_voltage 12470.0;
  secondary_voltage 208.0;
  resistance 0.01900;
  reactance 0.01770;
  shunt_resistance 126.58;
  shunt_reactance 22.57;
}
object transformer_configuration {
  name XF1_PADMOUNT_AN_15;
  power_rating 15.00;
  powerA_rating 15.00;
  powerB_rating 0.0;
  powerC_rating 0.0;
  install_type PADMOUNT;
  connect_type WYE_WYE;
  primary_voltage 12470.0;
  secondary_voltage 208.0;
  resistance 0.01900;
  reactance 0.01770;
  shunt_resistance 126.58;
  shunt_reactance 22.57;
}
object transformer_configuration {
  name XF3_PADMOUNT_ABCN_30;
  power_rating 30.00;
  powerA_rating 10.00;
  powerB_rating 10.00;
  powerC_rating 10.00;
  install_type PADMOUNT;
  connect_type WYE_WYE;
  primary_voltage 12470.0;
  secondary_voltage 208.0;
  resistance 0.01900;
  reactance 0.01770;
  shunt_resistance 126.58;
  shunt_reactance 22.57;
}
object transformer_configuration {
  name XF1_PADMOUNT_AN_5;
  power_rating 5.00;
  powerA_rating 5.00;
  powerB_rating 0.0;
  powerC_rating 0.0;
  install_type PADMOUNT;
  connect_type WYE_WYE;
  primary_voltage 12470.0;
  secondary_voltage 208.0;
  resistance 0.01900;
  reactance 0.01770;
  shunt_resistance 126.58;
  shunt_reactance 22.57;
}
object transformer_configuration {
  name XF3_PADMOUNT_ABCN_45;
  power_rating 45.00;
  powerA_rating 15.00;
  powerB_rating 15.00;
  powerC_rating 15.00;
  install_type PADMOUNT;
  connect_type WYE_WYE;
  primary_voltage 12470.0;
  secondary_voltage 208.0;
  resistance 0.01750;
  reactance 0.02120;
  shunt_resistance 142.86;
  shunt_reactance 25.38;
}
object transformer_configuration {
  name XF1_PADMOUNT_CN_10;
  power_rating 10.00;
  powerA_rating 0.0;
  powerB_rating 0.0;
  powerC_rating 10.00;
  install_type PADMOUNT;
  connect_type WYE_WYE;
  primary_voltage 12470.0;
  secondary_voltage 208.0;
  resistance 0.01900;
  reactance 0.01770;
  shunt_resistance 126.58;
  shunt_reactance 22.57;
}
object transformer_configuration {
  name XF3_PADMOUNT_ABCN_75;
  power_rating 75.00;
  powerA_rating 25.00;
  powerB_rating 25.00;
  powerC_rating 25.00;
  install_type PADMOUNT;
  connect_type WYE_WYE;
  primary_voltage 12470.0;
  secondary_voltage 208.0;
  resistance 0.01600;
  reactance 0.02420;
  shunt_resistance 158.73;
  shunt_reactance 30.86;
}
object triplex_line_conductor {
  name triplex_4/0_aa;
  resistance 0.48;
  geometric_mean_radius 0.0158;
  rating.summer.continuous 1000.0;
  rating.summer.emergency 1000.0;
  rating.winter.continuous 1000.0;
  rating.winter.emergency 1000.0;
}
object triplex_line_configuration {
  name tpx_config;
  conductor_1 triplex_4/0_aa;
  conductor_2 triplex_4/0_aa;
  conductor_N triplex_4/0_aa;
  insulation_thickness 0.08;
  diameter 0.522;
}
object regulator_configuration {
  name feeder_reg_cfg;
  Control OUTPUT_VOLTAGE;
  band_center 7518.0;
  band_width 120;
  connect_type WYE_WYE;
  time_delay 30;
  raise_taps 16;
  lower_taps 16;
  regulation 0.10;
  tap_pos_A 0;
  tap_pos_B 0;
  tap_pos_C 0;
}
object overhead_line_conductor {
  name ID_482;
  rating.summer.continuous 204.0;
  geometric_mean_radius 0.00836 ft;
  resistance 0.94500;
}
object overhead_line_conductor {
  name ID_483;
  rating.summer.continuous 149.0;
  geometric_mean_radius 0.00663 ft;
  resistance 1.50000;
}
object overhead_line_conductor {
  name ID_484;
  rating.summer.continuous 197.0;
  geometric_mean_radius 0.00883 ft;
  resistance 1.51970;
}
object overhead_line_conductor {
  name ID_485;
  rating.summer.continuous 530.0;
  geometric_mean_radius 0.02300 ft;
  resistance 0.30300;
}
object overhead_line_conductor {
  name ID_486;
  rating.summer.continuous 256.0;
  geometric_mean_radius 0.01200 ft;
  resistance 0.16600;
}
object overhead_line_conductor {
  name ID_487;
  rating.summer.continuous 300.0;
  geometric_mean_radius 0.00600 ft;
  resistance 0.63800;
}
object line_spacing {
  name ID_59;
  distance_CN 48.0 in;
}
object line_spacing {
  name ID_60;
  distance_AN 48.0 in;
}
object line_spacing {
  name ID_61;
  distance_AB 48.0 in;
  distance_AN 48.0 in;
  distance_BN 48.0 in;
}
object line_spacing {
  name ID_62;
  distance_AB 51.6 in;
  distance_AN 48.0 in;
  distance_BN 48.0 in;
}
object line_spacing {
  name ID_63;
  distance_BN 48.0 in;
}
object line_spacing {
  name ID_64;
  distance_AB 57.6 in;
  distance_BC 57.6 in;
  distance_AC 57.6 in;
  distance_AN 48.0 in;
  distance_BN 48.0 in;
  distance_CN 48.0 in;
}
object line_spacing {
  name ID_65;
  distance_BC 51.6 in;
  distance_BN 48.0 in;
  distance_CN 48.0 in;
}
object line_spacing {
  name ID_66;
  distance_AC 51.6 in;
  distance_AN 48.0 in;
  distance_CN 48.0 in;
}
object line_spacing {
  name ID_67;
  distance_CN 0.0 in;
}
object line_spacing {
  name ID_68;
  distance_AN 0.0 in;
}
object line_spacing {
  name ID_69;
  distance_BN 0.0 in;
}
object line_spacing {
  name ID_70;
  distance_AB 0.0 in;
  distance_BC 0.0 in;
  distance_AC 0.0 in;
  distance_AN 0.0 in;
  distance_BN 0.0 in;
  distance_CN 0.0 in;
}
object line_spacing {
  name ID_71;
  distance_AB 48.0 in;
  distance_BC 48.0 in;
  distance_AC 48.0 in;
  distance_AN 48.0 in;
  distance_BN 48.0 in;
  distance_CN 48.0 in;
}
object line_spacing {
  name ID_72;
  distance_AB 46.3 in;
  distance_BC 46.3 in;
  distance_AC 46.3 in;
  distance_AN 48.0 in;
  distance_BN 48.0 in;
  distance_CN 48.0 in;
}
object line_spacing {
  name ID_73;
  distance_AC 48.0 in;
  distance_AN 48.0 in;
  distance_CN 48.0 in;
}
object line_configuration {
  name ID_31;
  conductor_C ID_482;
  conductor_N ID_482;
  spacing ID_59;
}
object line_configuration {
  name ID_32;
  conductor_C ID_483;
  conductor_N ID_483;
  spacing ID_59;
}
object line_configuration {
  name ID_33;
  conductor_C ID_484;
  conductor_N ID_484;
  spacing ID_59;
}
object line_configuration {
  name ID_34;
  conductor_A ID_482;
  conductor_N ID_482;
  spacing ID_60;
}
object line_configuration {
  name ID_35;
  conductor_A ID_482;
  conductor_B ID_482;
  conductor_N ID_482;
  spacing ID_61;
}
object line_configuration {
  name ID_36;
  conductor_A ID_482;
  conductor_B ID_482;
  conductor_N ID_482;
  spacing ID_62;
}
object line_configuration {
  name ID_37;
  conductor_B ID_482;
  conductor_N ID_482;
  spacing ID_63;
}
object line_configuration {
  name ID_38;
  conductor_A ID_483;
  conductor_B ID_483;
  conductor_C ID_483;
  conductor_N ID_483;
  spacing ID_64;
}
object line_configuration {
  name ID_39;
  conductor_B ID_482;
  conductor_C ID_482;
  conductor_N ID_482;
  spacing ID_65;
}
object line_configuration {
  name ID_40;
  conductor_C ID_483;
  conductor_N ID_483;
  spacing ID_59;
}
object line_configuration {
  name ID_41;
  conductor_A ID_483;
  conductor_C ID_483;
  conductor_N ID_483;
  spacing ID_66;
}
object line_configuration {
  name ID_42;
  conductor_C ID_1596;
  conductor_N ID_1596;
  spacing ID_67;
}
object line_configuration {
  name ID_43;
  conductor_A ID_1596;
  conductor_N ID_1596;
  spacing ID_68;
}
object line_configuration {
  name ID_44;
  conductor_B ID_1596;
  conductor_N ID_1596;
  spacing ID_69;
}
object line_configuration {
  name ID_45;
  conductor_A ID_1596;
  conductor_B ID_1596;
  conductor_C ID_1596;
  conductor_N ID_1596;
  spacing ID_70;
}
object line_configuration {
  name ID_46;
  conductor_A ID_485;
  conductor_B ID_485;
  conductor_C ID_485;
  conductor_N ID_485;
  spacing ID_71;
}
object line_configuration {
  name ID_47;
  conductor_A ID_485;
  conductor_B ID_485;
  conductor_C ID_485;
  conductor_N ID_485;
  spacing ID_64;
}
object line_configuration {
  name ID_48;
  conductor_A ID_485;
  conductor_B ID_485;
  conductor_C ID_485;
  conductor_N ID_485;
  spacing ID_72;
}
object line_configuration {
  name ID_49;
  conductor_A ID_486;
  conductor_B ID_486;
  conductor_C ID_486;
  conductor_N ID_486;
  spacing ID_71;
}
object line_configuration {
  name ID_50;
  conductor_A ID_487;
  conductor_B ID_487;
  conductor_C ID_487;
  conductor_N ID_487;
  spacing ID_64;
}
object line_configuration {
  name ID_51;
  conductor_A ID_487;
  conductor_B ID_487;
  conductor_C ID_487;
  conductor_N ID_487;
  spacing ID_71;
}
object line_configuration {
  name ID_52;
  conductor_A ID_483;
  conductor_C ID_483;
  conductor_N ID_483;
  spacing ID_73;
}
object line_configuration {
  name ID_53;
  conductor_C ID_482;
  conductor_N ID_482;
  spacing ID_59;
}
object line_configuration {
  name ID_54;
  conductor_A ID_486;
  conductor_B ID_486;
  conductor_N ID_486;
  spacing ID_62;
}
object line_configuration {
  name ID_55;
  conductor_B ID_1596;
  conductor_N ID_1596;
  spacing ID_63;
}
object line_configuration {
  name ID_56;
  conductor_A ID_1597;
  conductor_B ID_1597;
  conductor_C ID_1597;
  conductor_N ID_1597;
  spacing ID_70;
}
object line_configuration {
  name ID_57;
  conductor_A ID_1598;
  conductor_B ID_1598;
  conductor_C ID_1598;
  conductor_N ID_1598;
  spacing ID_70;
}
object line_configuration {
  name ID_58;
  conductor_C ID_1596;
  conductor_N ID_1596;
  spacing ID_59;
}
object triplex_line_conductor {
  name triplex_4/0 AA;
  resistance 0.48;
  geometric_mean_radius 0.0158;
  rating.summer.continuous 1000.0;
  rating.summer.emergency 1000.0;
  rating.winter.continuous 1000.0;
  rating.winter.emergency 1000.0;
}
object triplex_line_configuration {
  name ID_755;
  conductor_1 triplex_4/0 AA;
  conductor_2 triplex_4/0 AA;
  conductor_N triplex_4/0 AA;
  insulation_thickness 0.08;
  diameter 0.522;
}
object underground_line_conductor {
  name ID_1596;
  rating.summer.continuous 214.0;
  outer_diameter 1.32;
  conductor_gmr 0.0177 ft;
  conductor_diameter 0.528;
  conductor_resistance 0.433488;
  neutral_gmr 0.00208 ft;
  neutral_resistance 14.87;
  neutral_diameter 0.0641;
  neutral_strands 11.0;
  insulation_relative_permitivitty 2.3;
}
object underground_line_conductor {
  name ID_1597;
  rating.summer.continuous 564.0;
  outer_diameter 2.291;
  conductor_gmr 0.03592 ft;
  conductor_diameter 1.117;
  conductor_resistance 0.093456;
  neutral_gmr 0.00330 ft;
  neutral_resistance 5.9026;
  neutral_diameter 0.1019;
  neutral_strands 20.0;
  insulation_relative_permitivitty 2.3;
}
object underground_line_conductor {
  name ID_1598;
  rating.summer.continuous 425.0;
  outer_diameter 1.96;
  conductor_gmr 0.0321 ft;
  conductor_diameter 0.998;
  conductor_resistance 0.122496;
  neutral_gmr 0.00330 ft;
  neutral_resistance 5.9026;
  neutral_diameter 0.1019;
  neutral_strands 15.0;
  insulation_relative_permitivitty 2.3;
}
object fuse {
  name R4_12_47_2_fuse_1;
// downstream 4.47 kva on A
  phases AN;
  from R4_12_47_2_node_234;
  to R4_12_47_2_node_85;
  current_limit 40;
  status CLOSED;
  mean_replacement_time 3600;
}
object fuse {
  name R4_12_47_2_fuse_2;
// downstream 14.29 kva on AS
  phases AN;
  from R4_12_47_2_node_45;
  to R4_12_47_2_node_79;
  current_limit 40;
  status CLOSED;
  mean_replacement_time 3600;
}
object fuse {
  name R4_12_47_2_fuse_3;
// downstream 2.04 kva on CS
  phases CN;
  from R4_12_47_2_node_257;
  to R4_12_47_2_node_78;
  current_limit 40;
  status CLOSED;
  mean_replacement_time 3600;
}
object fuse {
  name R4_12_47_2_fuse_4;
// downstream 15.07 kva on B
  phases BN;
  from R4_12_47_2_node_44;
  to R4_12_47_2_node_80;
  current_limit 40;
  status CLOSED;
  mean_replacement_time 3600;
}
object fuse {
  name R4_12_47_2_fuse_5;
// downstream 5.10 kva on BS
  phases BN;
  from R4_12_47_2_node_43;
  to R4_12_47_2_node_81;
  current_limit 40;
  status CLOSED;
  mean_replacement_time 3600;
}
object fuse {
  name R4_12_47_2_fuse_6;
// downstream 74.70 kva on ABCS
  phases ABCN;
  from R4_12_47_2_node_230;
  to R4_12_47_2_node_82;
  current_limit 40;
  status CLOSED;
  mean_replacement_time 3600;
}
object fuse {
  name R4_12_47_2_fuse_7;
// downstream 298.35 kva on BCS
  phases BCN;
  from R4_12_47_2_node_15;
  to R4_12_47_2_node_84;
  current_limit 65;
  status CLOSED;
  mean_replacement_time 3600;
}
object fuse {
  name R4_12_47_2_fuse_8;
// downstream 4.08 kva on CS
  phases CN;
  from R4_12_47_2_node_47;
  to R4_12_47_2_node_88;
  current_limit 40;
  status CLOSED;
  mean_replacement_time 3600;
}
object fuse {
  name R4_12_47_2_fuse_9;
// downstream 25.51 kva on CS
  phases CN;
  from R4_12_47_2_node_110;
  to R4_12_47_2_node_89;
  current_limit 40;
  status CLOSED;
  mean_replacement_time 3600;
}
object fuse {
  name R4_12_47_2_fuse_10;
// downstream 40.82 kva on CS
  phases CN;
  from R4_12_47_2_node_33;
  to R4_12_47_2_node_90;
  current_limit 40;
  status CLOSED;
  mean_replacement_time 3600;
}
object fuse {
  name R4_12_47_2_fuse_11;
// downstream 14.44 kva on ACS
  phases ACN;
  from R4_12_47_2_node_12;
  to R4_12_47_2_node_91;
  current_limit 40;
  status CLOSED;
  mean_replacement_time 3600;
}
object fuse {
  name R4_12_47_2_fuse_12;
// downstream 3.06 kva on CS
  phases CN;
  from R4_12_47_2_node_53;
  to R4_12_47_2_node_71;
  current_limit 40;
  status CLOSED;
  mean_replacement_time 3600;
}
object fuse {
  name R4_12_47_2_fuse_13;
// downstream 134.69 kva on AS
  phases AN;
  from R4_12_47_2_node_9;
  to R4_12_47_2_node_72;
  current_limit 65;
  status CLOSED;
  mean_replacement_time 3600;
}
object fuse {
  name R4_12_47_2_fuse_14;
// downstream 173.47 kva on AS
  phases AN;
  from R4_12_47_2_node_9;
  to R4_12_47_2_node_87;
  current_limit 65;
  status CLOSED;
  mean_replacement_time 3600;
}
object fuse {
  name R4_12_47_2_fuse_15;
// downstream 176.53 kva on BS
  phases BN;
  from R4_12_47_2_node_10;
  to R4_12_47_2_node_73;
  current_limit 65;
  status CLOSED;
  mean_replacement_time 3600;
}
object fuse {
  name R4_12_47_2_fuse_16;
// downstream 169.48 kva on AS
  phases AN;
  from R4_12_47_2_node_10;
  to R4_12_47_2_node_74;
  current_limit 65;
  status CLOSED;
  mean_replacement_time 3600;
}
object fuse {
  name R4_12_47_2_fuse_17;
// downstream 173.47 kva on BS
  phases BN;
  from R4_12_47_2_node_17;
  to R4_12_47_2_node_75;
  current_limit 65;
  status CLOSED;
  mean_replacement_time 3600;
}
object fuse {
  name R4_12_47_2_fuse_18;
// downstream 120.41 kva on CS
  phases CN;
  from R4_12_47_2_node_17;
  to R4_12_47_2_node_76;
  current_limit 65;
  status CLOSED;
  mean_replacement_time 3600;
}
object fuse {
  name R4_12_47_2_fuse_19;
// downstream 11.22 kva on A
  phases AN;
  from R4_12_47_2_node_24;
  to R4_12_47_2_node_92;
  current_limit 40;
  status CLOSED;
  mean_replacement_time 3600;
}
object fuse {
  name R4_12_47_2_fuse_20;
// downstream 2.04 kva on ABC
  phases ABCN;
  from R4_12_47_2_node_24;
  to R4_12_47_2_node_93;
  current_limit 40;
  status CLOSED;
  mean_replacement_time 3600;
}
object fuse {
  name R4_12_47_2_fuse_21;
// downstream 5.10 kva on ABC
  phases ABCN;
  from R4_12_47_2_node_25;
  to R4_12_47_2_node_94;
  current_limit 40;
  status CLOSED;
  mean_replacement_time 3600;
}
object fuse {
  name R4_12_47_2_fuse_22;
// downstream 4.08 kva on A
  phases AN;
  from R4_12_47_2_node_25;
  to R4_12_47_2_node_95;
  current_limit 40;
  status CLOSED;
  mean_replacement_time 3600;
}
object fuse {
  name R4_12_47_2_fuse_23;
// downstream 72.67 kva on BS
  phases BN;
  from R4_12_47_2_node_11;
  to R4_12_47_2_node_96;
  current_limit 40;
  status CLOSED;
  mean_replacement_time 3600;
}
object fuse {
  name R4_12_47_2_fuse_24;
// downstream 23.38 kva on BS
  phases BN;
  from R4_12_47_2_node_11;
  to R4_12_47_2_node_97;
  current_limit 40;
  status CLOSED;
  mean_replacement_time 3600;
}
object fuse {
  name R4_12_47_2_fuse_25;
// downstream 141.84 kva on BS
  phases BN;
  from R4_12_47_2_node_10;
  to R4_12_47_2_node_70;
  current_limit 65;
  status CLOSED;
  mean_replacement_time 3600;
}
object fuse {
  name R4_12_47_2_fuse_26;
// downstream 261.23 kva on AS
  phases AN;
  from R4_12_47_2_node_41;
  to R4_12_47_2_node_77;
  current_limit 100;
  status CLOSED;
  mean_replacement_time 3600;
}
object fuse {
  name R4_12_47_2_fuse_27;
// downstream 253.06 kva on BS
  phases BN;
  from R4_12_47_2_node_41;
  to R4_12_47_2_node_83;
  current_limit 100;
  status CLOSED;
  mean_replacement_time 3600;
}
object fuse {
  name R4_12_47_2_fuse_28;
// downstream 251.02 kva on CS
  phases CN;
  from R4_12_47_2_node_41;
  to R4_12_47_2_node_86;
  current_limit 100;
  status CLOSED;
  mean_replacement_time 3600;
}
object switch {
  name R4_12_47_2_switch_1;
  phases AN;
  from R4_12_47_2_node_143;
  to R4_12_47_2_node_61;
  status CLOSED;
}
object switch {
  name R4_12_47_2_switch_2;
  phases ABCN;
  from R4_12_47_2_node_262;
  to R4_12_47_2_node_60;
  status CLOSED;
}
object switch {
  name R4_12_47_2_switch_3;
// downstream 5.19 kva on AS
  phases AN;
  from R4_12_47_2_node_177;
  to R4_12_47_2_node_54;
  status CLOSED;
}
object switch {
  name R4_12_47_2_switch_4;
  phases ABCN;
  from R4_12_47_2_node_27;
  to R4_12_47_2_node_64;
  status CLOSED;
}
object switch {
  name R4_12_47_2_switch_5;
  phases BN;
  from R4_12_47_2_node_131;
  to R4_12_47_2_node_265;
  status CLOSED;
}
object switch {
  name R4_12_47_2_switch_6;
  phases BN;
  from R4_12_47_2_node_150;
  to R4_12_47_2_node_268;
  status CLOSED;
}
object switch {
  name R4_12_47_2_switch_7;
// downstream 262.55 kva on ABCS
  phases ABCN;
  from R4_12_47_2_node_12;
  to R4_12_47_2_node_66;
  status CLOSED;
}
object switch {
  name R4_12_47_2_switch_8;
// downstream 1565.82 kva on ABCS
  phases ABCN;
  from R4_12_47_2_node_243;
  to R4_12_47_2_node_65;
  status CLOSED;
}
object switch {
  name R4_12_47_2_switch_9;
  phases ABCN;
  from R4_12_47_2_node_259;
  to R4_12_47_2_node_68;
  status CLOSED;
}
object switch {
  name R4_12_47_2_switch_10;
// downstream 2464.75 kva on ABCS
  phases ABCN;
  from R4_12_47_2_node_263;
  to R4_12_47_2_node_67;
  status CLOSED;
}
object switch {
  name R4_12_47_2_switch_11;
// downstream 765.31 kva on ABCS
  phases ABCN;
  from R4_12_47_2_node_42;
  to R4_12_47_2_node_63;
  status CLOSED;
}
object switch {
  name R4_12_47_2_switch_12;
  phases AN;
  from R4_12_47_2_node_204;
  to R4_12_47_2_node_270;
  status CLOSED;
}
object switch {
  name R4_12_47_2_switch_13;
  phases BN;
  from R4_12_47_2_node_212;
  to R4_12_47_2_node_271;
  status CLOSED;
}
object switch {
  name R4_12_47_2_switch_14;
  phases AN;
  from R4_12_47_2_node_160;
  to R4_12_47_2_node_272;
  status CLOSED;
}
object switch {
  name R4_12_47_2_switch_15;
  phases BN;
  from R4_12_47_2_node_187;
  to R4_12_47_2_node_58;
  status CLOSED;
}
object overhead_line {
  name R4_12_47_2_ol_1;
// downstream 5.10 kva on CS
  phases CN;
  from R4_12_47_2_node_49;
  to R4_12_47_2_node_104;
  length 151.389;
  configuration ID_31;
}
object overhead_line {
  name R4_12_47_2_ol_2;
// downstream 8.16 kva on CS
  phases CN;
  from R4_12_47_2_node_49;
  to R4_12_47_2_node_48;
  length 98.908;
  configuration ID_32;
}
object overhead_line {
  name R4_12_47_2_ol_3;
// downstream 6.12 kva on CS
  phases CN;
  from R4_12_47_2_node_51;
  to R4_12_47_2_node_103;
  length 117.873;
  configuration ID_33;
}
object overhead_line {
  name R4_12_47_2_ol_4;
// downstream 4.47 kva on A
  phases AN;
  from R4_12_47_2_node_85;
  to R4_12_47_2_node_232;
  length 252.538;
  configuration ID_34;
}
object overhead_line {
  name R4_12_47_2_ol_5;
// downstream 18.37 kva on ABS
  phases ABN;
  from R4_12_47_2_node_16;
  to R4_12_47_2_node_235;
  length 109.076;
  configuration ID_35;
}
object overhead_line {
  name R4_12_47_2_ol_6;
// downstream 3.06 kva on AB
  phases ABN;
  from R4_12_47_2_node_16;
  to R4_12_47_2_node_233;
  length 319.354;
  configuration ID_36;
}
object overhead_line {
  name R4_12_47_2_ol_7;
// downstream 8.16 kva on CS
  phases CN;
  from R4_12_47_2_node_48;
  to R4_12_47_2_node_227;
  length 83.159;
  configuration ID_32;
}
object overhead_line {
  name R4_12_47_2_ol_8;
// downstream 6.12 kva on AS
  phases AN;
  from R4_12_47_2_node_221;
  to R4_12_47_2_node_222;
  length 151.970;
  configuration ID_34;
}
object overhead_line {
  name R4_12_47_2_ol_9;
// downstream 14.29 kva on AS
  phases AN;
  from R4_12_47_2_node_79;
  to R4_12_47_2_node_221;
  length 153.406;
  configuration ID_34;
}
object overhead_line {
  name R4_12_47_2_ol_10;
// downstream 4.47 kva on B
  phases BN;
  from R4_12_47_2_node_225;
  to R4_12_47_2_node_98;
  length 344.945;
  configuration ID_37;
}
object overhead_line {
  name R4_12_47_2_ol_11;
// downstream 2.04 kva on CS
  phases CN;
  from R4_12_47_2_node_78;
  to R4_12_47_2_node_258;
  length 1245.776;
  configuration ID_31;
}
object overhead_line {
  name R4_12_47_2_ol_12;
// downstream 15.07 kva on B
  phases BN;
  from R4_12_47_2_node_80;
  to R4_12_47_2_node_236;
  length 229.814;
  configuration ID_37;
}
object overhead_line {
  name R4_12_47_2_ol_13;
// downstream 10.59 kva on B
  phases BN;
  from R4_12_47_2_node_236;
  to R4_12_47_2_node_225;
  length 239.410;
  configuration ID_37;
}
object overhead_line {
  name R4_12_47_2_ol_14;
// downstream 4.08 kva on B
  phases BN;
  from R4_12_47_2_node_225;
  to R4_12_47_2_node_226;
  length 212.604;
  configuration ID_37;
}
object overhead_line {
  name R4_12_47_2_ol_15;
// downstream 5.10 kva on BS
  phases BN;
  from R4_12_47_2_node_81;
  to R4_12_47_2_node_220;
  length 25.109;
  configuration ID_37;
}
object overhead_line {
  name R4_12_47_2_ol_16;
// downstream 4.08 kva on B
  phases BN;
  from R4_12_47_2_node_220;
  to R4_12_47_2_node_224;
  length 218.660;
  configuration ID_37;
}
object overhead_line {
  name R4_12_47_2_ol_17;
// downstream 74.70 kva on ABCS
  phases ABCN;
  from R4_12_47_2_node_82;
  to R4_12_47_2_node_229;
  length 302.928;
  configuration ID_38;
}
object overhead_line {
  name R4_12_47_2_ol_18;
// downstream 52.25 kva on ABCS
  phases ABCN;
  from R4_12_47_2_node_229;
  to R4_12_47_2_node_240;
  length 315.315;
  configuration ID_38;
}
object overhead_line {
  name R4_12_47_2_ol_19;
// downstream 298.35 kva on BCS
  phases BCN;
  from R4_12_47_2_node_84;
  to R4_12_47_2_node_17;
  length 426.151;
  configuration ID_39;
}
object overhead_line {
  name R4_12_47_2_ol_20;
// downstream 4.08 kva on CS
  phases CN;
  from R4_12_47_2_node_88;
  to R4_12_47_2_node_105;
  length 179.618;
  configuration ID_40;
}
object overhead_line {
  name R4_12_47_2_ol_21;
// downstream 25.51 kva on CS
  phases CN;
  from R4_12_47_2_node_89;
  to R4_12_47_2_node_109;
  length 138.390;
  configuration ID_31;
}
object overhead_line {
  name R4_12_47_2_ol_22;
// downstream 18.37 kva on CS
  phases CN;
  from R4_12_47_2_node_109;
  to R4_12_47_2_node_108;
  length 221.119;
  configuration ID_31;
}
object overhead_line {
  name R4_12_47_2_ol_23;
// downstream 17.35 kva on CS
  phases CN;
  from R4_12_47_2_node_108;
  to R4_12_47_2_node_107;
  length 277.836;
  configuration ID_31;
}
object overhead_line {
  name R4_12_47_2_ol_24;
// downstream 5.10 kva on CS
  phases CN;
  from R4_12_47_2_node_107;
  to R4_12_47_2_node_46;
  length 91.954;
  configuration ID_31;
}
object overhead_line {
  name R4_12_47_2_ol_25;
// downstream 40.82 kva on CS
  phases CN;
  from R4_12_47_2_node_90;
  to R4_12_47_2_node_34;
  length 15.863;
  configuration ID_40;
}
object overhead_line {
  name R4_12_47_2_ol_26;
// downstream 14.44 kva on ACS
  phases ACN;
  from R4_12_47_2_node_91;
  to R4_12_47_2_node_250;
  length 204.049;
  configuration ID_41;
}
object overhead_line {
  name R4_12_47_2_ol_27;
// downstream 2464.75 kva on ABCS
  phases ABCN;
  from R4_12_47_2_node_67;
  to R4_12_47_2_node_27;
  length 23.710;
  configuration ID_46;
}
object overhead_line {
  name R4_12_47_2_ol_28;
// downstream 40.82 kva on CS
  phases CN;
  from R4_12_47_2_node_34;
  to R4_12_47_2_node_99;
  length 82.731;
  configuration ID_40;
}
object overhead_line {
  name R4_12_47_2_ol_29;
// downstream 34.69 kva on CS
  phases CN;
  from R4_12_47_2_node_99;
  to R4_12_47_2_node_106;
  length 266.226;
  configuration ID_40;
}
object overhead_line {
  name R4_12_47_2_ol_30;
// downstream 33.67 kva on CS
  phases CN;
  from R4_12_47_2_node_106;
  to R4_12_47_2_node_100;
  length 213.624;
  configuration ID_40;
}
object overhead_line {
  name R4_12_47_2_ol_31;
// downstream 32.65 kva on CS
  phases CN;
  from R4_12_47_2_node_100;
  to R4_12_47_2_node_102;
  length 302.630;
  configuration ID_40;
}
object overhead_line {
  name R4_12_47_2_ol_32;
// downstream 31.63 kva on CS
  phases CN;
  from R4_12_47_2_node_102;
  to R4_12_47_2_node_47;
  length 298.447;
  configuration ID_40;
}
object overhead_line {
  name R4_12_47_2_ol_33;
// downstream 27.55 kva on CS
  phases CN;
  from R4_12_47_2_node_47;
  to R4_12_47_2_node_49;
  length 291.117;
  configuration ID_40;
}
object overhead_line {
  name R4_12_47_2_ol_34;
// downstream 14.29 kva on CS
  phases CN;
  from R4_12_47_2_node_49;
  to R4_12_47_2_node_50;
  length 61.740;
  configuration ID_40;
}
object overhead_line {
  name R4_12_47_2_ol_35;
// downstream 2423.94 kva on ABCS
  phases ABCN;
  from R4_12_47_2_node_35;
  to R4_12_47_2_node_111;
  length 232.410;
  configuration ID_48;
}
object overhead_line {
  name R4_12_47_2_ol_36;
// downstream 2415.22 kva on ABCS
  phases ABCN;
  from R4_12_47_2_node_111;
  to R4_12_47_2_node_110;
  length 269.094;
  configuration ID_48;
}
object overhead_line {
  name R4_12_47_2_ol_37;
// downstream 2380.44 kva on ABCS
  phases ABCN;
  from R4_12_47_2_node_110;
  to R4_12_47_2_node_101;
  length 245.704;
  configuration ID_48;
}
object overhead_line {
  name R4_12_47_2_ol_38;
// downstream 2360.97 kva on ABCS
  phases ABCN;
  from R4_12_47_2_node_101;
  to R4_12_47_2_node_40;
  length 91.809;
  configuration ID_48;
}
object overhead_line {
  name R4_12_47_2_ol_39;
// downstream 1.02 kva on ABC
  phases ABCN;
  from R4_12_47_2_node_25;
  to R4_12_47_2_node_248;
  length 40.191;
  configuration ID_49;
}
object overhead_line {
  name R4_12_47_2_ol_40;
// downstream 293.36 kva on ABCS
  phases ABCN;
  from R4_12_47_2_node_13;
  to R4_12_47_2_node_249;
  length 364.065;
  configuration ID_48;
}
object overhead_line {
  name R4_12_47_2_ol_41;
// downstream 276.99 kva on ABCS
  phases ABCN;
  from R4_12_47_2_node_249;
  to R4_12_47_2_node_12;
  length 142.058;
  configuration ID_48;
}
object overhead_line {
  name R4_12_47_2_ol_42;
// downstream 159.27 kva on ABCS
  phases ABCN;
  from R4_12_47_2_node_252;
  to R4_12_47_2_node_244;
  length 634.104;
  configuration ID_48;
}
object overhead_line {
  name R4_12_47_2_ol_43;
// downstream 153.06 kva on ABC
  phases ABCN;
  from R4_12_47_2_node_244;
  to R4_12_47_2_node_246;
  length 1130.440;
  configuration ID_48;
}
object overhead_line {
  name R4_12_47_2_ol_44;
// downstream 150.00 kva on ABC
  phases ABCN;
  from R4_12_47_2_node_246;
  to R4_12_47_2_node_21;
  length 231.168;
  configuration ID_48;
}
object overhead_line {
  name R4_12_47_2_ol_45;
// downstream 262.55 kva on ABCS
  phases ABCN;
  from R4_12_47_2_node_66;
  to R4_12_47_2_node_253;
  length 289.990;
  configuration ID_48;
}
object overhead_line {
  name R4_12_47_2_ol_46;
// downstream 255.32 kva on ABCS
  phases ABCN;
  from R4_12_47_2_node_253;
  to R4_12_47_2_node_252;
  length 187.375;
  configuration ID_48;
}
object overhead_line {
  name R4_12_47_2_ol_47;
// downstream 10.20 kva on ABC
  phases ABCN;
  from R4_12_47_2_node_24;
  to R4_12_47_2_node_25;
  length 70.847;
  configuration ID_49;
}
object overhead_line {
  name R4_12_47_2_ol_48;
// downstream 96.05 kva on BS
  phases BN;
  from R4_12_47_2_node_252;
  to R4_12_47_2_node_11;
  length 52.263;
  configuration ID_37;
}
object overhead_line {
  name R4_12_47_2_ol_49;
// downstream 6.12 kva on CS
  phases CN;
  from R4_12_47_2_node_239;
  to R4_12_47_2_node_51;
  length 208.056;
  configuration ID_33;
}
object overhead_line {
  name R4_12_47_2_ol_50;
// downstream 4.47 kva on C
  phases CN;
  from R4_12_47_2_node_17;
  to R4_12_47_2_node_241;
  length 183.739;
  configuration ID_40;
}
object overhead_line {
  name R4_12_47_2_ol_51;
// downstream 2423.94 kva on ABCS
  phases ABCN;
  from R4_12_47_2_node_33;
  to R4_12_47_2_node_35;
  length 310.844;
  configuration ID_48;
}
object overhead_line {
  name R4_12_47_2_ol_52;
// downstream 2464.75 kva on ABCS
  phases ABCN;
  from R4_12_47_2_node_27;
  to R4_12_47_2_node_26;
  length 34.606;
  configuration ID_47;
}
object overhead_line {
  name R4_12_47_2_ol_53;
// downstream 2464.75 kva on ABCS
  phases ABCN;
  from R4_12_47_2_node_26;
  to R4_12_47_2_node_33;
  length 1012.376;
  configuration ID_48;
}
object overhead_line {
  name R4_12_47_2_ol_54;
// downstream 14.29 kva on CS
  phases CN;
  from R4_12_47_2_node_50;
  to R4_12_47_2_node_239;
  length 200.912;
  configuration ID_40;
}
object overhead_line {
  name R4_12_47_2_ol_55;
// downstream 7.14 kva on CS
  phases CN;
  from R4_12_47_2_node_239;
  to R4_12_47_2_node_256;
  length 336.812;
  configuration ID_40;
}
object overhead_line {
  name R4_12_47_2_ol_56;
// downstream 5.10 kva on CS
  phases CN;
  from R4_12_47_2_node_46;
  to R4_12_47_2_node_228;
  length 61.461;
  configuration ID_31;
}
object overhead_line {
  name R4_12_47_2_ol_57;
// downstream 2360.97 kva on ABCS
  phases ABCN;
  from R4_12_47_2_node_40;
  to R4_12_47_2_node_43;
  length 369.934;
  configuration ID_48;
}
object overhead_line {
  name R4_12_47_2_ol_58;
// downstream 2355.86 kva on ABCS
  phases ABCN;
  from R4_12_47_2_node_43;
  to R4_12_47_2_node_44;
  length 208.020;
  configuration ID_48;
}
object overhead_line {
  name R4_12_47_2_ol_59;
// downstream 765.31 kva on ABCS
  phases ABCN;
  from R4_12_47_2_node_44;
  to R4_12_47_2_node_42;
  length 93.495;
  configuration ID_47;
}
object overhead_line {
  name R4_12_47_2_ol_60;
// downstream 1.02 kva on CS
  phases CN;
  from R4_12_47_2_node_250;
  to R4_12_47_2_node_254;
  length 626.563;
  configuration ID_40;
}
object overhead_line {
  name R4_12_47_2_ol_61;
// downstream 74.49 kva on ABC
  phases ABCN;
  from R4_12_47_2_node_21;
  to R4_12_47_2_node_22;
  length 68.605;
  configuration ID_50;
}
object overhead_line {
  name R4_12_47_2_ol_62;
// downstream 37.76 kva on ABC
  phases ABCN;
  from R4_12_47_2_node_22;
  to R4_12_47_2_node_245;
  length 139.109;
  configuration ID_51;
}
object overhead_line {
  name R4_12_47_2_ol_63;
// downstream 36.73 kva on ABC
  phases ABCN;
  from R4_12_47_2_node_22;
  to R4_12_47_2_node_251;
  length 214.237;
  configuration ID_49;
}
object overhead_line {
  name R4_12_47_2_ol_64;
// downstream 35.71 kva on ABC
  phases ABCN;
  from R4_12_47_2_node_251;
  to R4_12_47_2_node_23;
  length 118.880;
  configuration ID_49;
}
object overhead_line {
  name R4_12_47_2_ol_65;
// downstream 44.90 kva on ABC
  phases ABCN;
  from R4_12_47_2_node_21;
  to R4_12_47_2_node_20;
  length 128.808;
  configuration ID_48;
}
object overhead_line {
  name R4_12_47_2_ol_66;
// downstream 12.24 kva on ABC
  phases ABCN;
  from R4_12_47_2_node_23;
  to R4_12_47_2_node_247;
  length 58.009;
  configuration ID_49;
}
object overhead_line {
  name R4_12_47_2_ol_67;
// downstream 23.47 kva on ABC
  phases ABCN;
  from R4_12_47_2_node_23;
  to R4_12_47_2_node_24;
  length 205.582;
  configuration ID_49;
}
object overhead_line {
  name R4_12_47_2_ol_68;
// downstream 41.96 kva on ACS
  phases ACN;
  from R4_12_47_2_node_240;
  to R4_12_47_2_node_257;
  length 343.455;
  configuration ID_52;
}
object overhead_line {
  name R4_12_47_2_ol_69;
// downstream 34.26 kva on ACS
  phases ACN;
  from R4_12_47_2_node_257;
  to R4_12_47_2_node_237;
  length 215.526;
  configuration ID_52;
}
object overhead_line {
  name R4_12_47_2_ol_70;
// downstream 15.89 kva on CS
  phases CN;
  from R4_12_47_2_node_237;
  to R4_12_47_2_node_52;
  length 366.013;
  configuration ID_40;
}
object overhead_line {
  name R4_12_47_2_ol_71;
// downstream 6.12 kva on C
  phases CN;
  from R4_12_47_2_node_52;
  to R4_12_47_2_node_255;
  length 287.701;
  configuration ID_40;
}
object overhead_line {
  name R4_12_47_2_ol_72;
// downstream 9.77 kva on CS
  phases CN;
  from R4_12_47_2_node_52;
  to R4_12_47_2_node_242;
  length 267.493;
  configuration ID_53;
}
object overhead_line {
  name R4_12_47_2_ol_73;
// downstream 3.06 kva on CS
  phases CN;
  from R4_12_47_2_node_242;
  to R4_12_47_2_node_53;
  length 189.000;
  configuration ID_53;
}
object overhead_line {
  name R4_12_47_2_ol_74;
// downstream 308.17 kva on AS
  phases AN;
  from R4_12_47_2_node_230;
  to R4_12_47_2_node_9;
  length 363.094;
  configuration ID_34;
}
object overhead_line {
  name R4_12_47_2_ol_75;
// downstream 1127.02 kva on ABCS
  phases ABCN;
  from R4_12_47_2_node_231;
  to R4_12_47_2_node_14;
  length 239.345;
  configuration ID_48;
}
object overhead_line {
  name R4_12_47_2_ol_76;
// downstream 1136.29 kva on ABCS
  phases ABCN;
  from R4_12_47_2_node_230;
  to R4_12_47_2_node_231;
  length 225.751;
  configuration ID_48;
}
object overhead_line {
  name R4_12_47_2_ol_77;
// downstream 487.85 kva on ABS
  phases ABN;
  from R4_12_47_2_node_14;
  to R4_12_47_2_node_10;
  length 168.523;
  configuration ID_54;
}
object overhead_line {
  name R4_12_47_2_ol_78;
// downstream 639.17 kva on ABCS
  phases ABCN;
  from R4_12_47_2_node_14;
  to R4_12_47_2_node_15;
  length 91.070;
  configuration ID_48;
}
object overhead_line {
  name R4_12_47_2_ol_79;
// downstream 293.36 kva on ABCS
  phases ABCN;
  from R4_12_47_2_node_238;
  to R4_12_47_2_node_13;
  length 23.470;
  configuration ID_46;
}
object overhead_line {
  name R4_12_47_2_ol_80;
// downstream 340.82 kva on ABCS
  phases ABCN;
  from R4_12_47_2_node_32;
  to R4_12_47_2_node_234;
  length 101.809;
  configuration ID_46;
}
object overhead_line {
  name R4_12_47_2_ol_81;
// downstream 340.82 kva on ABCS
  phases ABCN;
  from R4_12_47_2_node_15;
  to R4_12_47_2_node_32;
  length 126.514;
  configuration ID_46;
}
object overhead_line {
  name R4_12_47_2_ol_82;
// downstream 324.45 kva on ABCS
  phases ABCN;
  from R4_12_47_2_node_234;
  to R4_12_47_2_node_16;
  length 230.786;
  configuration ID_46;
}
object overhead_line {
  name R4_12_47_2_ol_83;
// downstream 303.02 kva on ABCS
  phases ABCN;
  from R4_12_47_2_node_16;
  to R4_12_47_2_node_238;
  length 201.275;
  configuration ID_46;
}
object overhead_line {
  name R4_12_47_2_ol_84;
// downstream 1575.48 kva on ABCS
  phases ABCN;
  from R4_12_47_2_node_44;
  to R4_12_47_2_node_243;
  length 229.505;
  configuration ID_48;
}
object overhead_line {
  name R4_12_47_2_ol_85;
// downstream 1565.82 kva on ABCS
  phases ABCN;
  from R4_12_47_2_node_65;
  to R4_12_47_2_node_223;
  length 193.941;
  configuration ID_48;
}
object overhead_line {
  name R4_12_47_2_ol_86;
// downstream 1545.33 kva on ABCS
  phases ABCN;
  from R4_12_47_2_node_223;
  to R4_12_47_2_node_45;
  length 207.022;
  configuration ID_48;
}
object overhead_line {
  name R4_12_47_2_ol_87;
// downstream 1531.04 kva on ABCS
  phases ABCN;
  from R4_12_47_2_node_45;
  to R4_12_47_2_node_230;
  length 650.650;
  configuration ID_48;
}
object overhead_line {
  name R4_12_47_2_ol_88;
// downstream 44.90 kva on ABC
  phases ABCN;
  from R4_12_47_2_node_20;
  to R4_12_47_2_node_18;
  length 375.223;
  configuration ID_48;
}
object overhead_line {
  name R4_12_47_2_ol_89;
// downstream 22.45 kva on ABC
  phases ABCN;
  from R4_12_47_2_node_28;
  to R4_12_47_2_node_19;
  length 35.934;
  configuration ID_47;
}
object overhead_line {
  name R4_12_47_2_ol_90;
// downstream 22.45 kva on ABC
  phases ABCN;
  from R4_12_47_2_node_19;
  to R4_12_47_2_node_259;
  length 176.583;
  configuration ID_46;
}
object overhead_line {
  name R4_12_47_2_ol_91;
// downstream 44.90 kva on ABC
  phases ABCN;
  from R4_12_47_2_node_260;
  to R4_12_47_2_node_28;
  length 193.676;
  configuration ID_47;
}
object overhead_line {
  name R4_12_47_2_ol_92;
// downstream 44.90 kva on ABC
  phases ABCN;
  from R4_12_47_2_node_18;
  to R4_12_47_2_node_260;
  length 502.326;
  configuration ID_48;
}
object underground_line {
  name R4_12_47_2_ul_1;
// downstream 3.06 kva on CS
  phases CN;
  from R4_12_47_2_node_71;
  to R4_12_47_2_node_153;
  length 399.280;
  configuration ID_42;
}
object underground_line {
  name R4_12_47_2_ul_2;
// downstream 134.69 kva on AS
  phases AN;
  from R4_12_47_2_node_72;
  to R4_12_47_2_node_116;
  length 398.467;
  configuration ID_43;
}
object underground_line {
  name R4_12_47_2_ul_3;
// downstream 116.33 kva on AS
  phases AN;
  from R4_12_47_2_node_116;
  to R4_12_47_2_node_6;
  length 21.572;
  configuration ID_43;
}
object underground_line {
  name R4_12_47_2_ul_4;
// downstream 173.47 kva on AS
  phases AN;
  from R4_12_47_2_node_87;
  to R4_12_47_2_node_114;
  length 425.143;
  configuration ID_43;
}
object underground_line {
  name R4_12_47_2_ul_5;
// downstream 143.88 kva on AS
  phases AN;
  from R4_12_47_2_node_114;
  to R4_12_47_2_node_112;
  length 413.875;
  configuration ID_43;
}
object underground_line {
  name R4_12_47_2_ul_6;
// downstream 126.53 kva on AS
  phases AN;
  from R4_12_47_2_node_112;
  to R4_12_47_2_node_113;
  length 187.413;
  configuration ID_43;
}
object underground_line {
  name R4_12_47_2_ul_7;
// downstream 113.27 kva on AS
  phases AN;
  from R4_12_47_2_node_113;
  to R4_12_47_2_node_38;
  length 227.285;
  configuration ID_43;
}
object underground_line {
  name R4_12_47_2_ul_8;
// downstream 176.53 kva on BS
  phases BN;
  from R4_12_47_2_node_73;
  to R4_12_47_2_node_126;
  length 68.264;
  configuration ID_44;
}
object underground_line {
  name R4_12_47_2_ul_9;
// downstream 161.23 kva on BS
  phases BN;
  from R4_12_47_2_node_126;
  to R4_12_47_2_node_125;
  length 185.006;
  configuration ID_44;
}
object underground_line {
  name R4_12_47_2_ul_10;
// downstream 150.00 kva on BS
  phases BN;
  from R4_12_47_2_node_125;
  to R4_12_47_2_node_124;
  length 309.669;
  configuration ID_44;
}
object underground_line {
  name R4_12_47_2_ul_11;
// downstream 137.76 kva on BS
  phases BN;
  from R4_12_47_2_node_124;
  to R4_12_47_2_node_8;
  length 235.852;
  configuration ID_44;
}
object underground_line {
  name R4_12_47_2_ul_12;
// downstream 169.48 kva on AS
  phases AN;
  from R4_12_47_2_node_74;
  to R4_12_47_2_node_121;
  length 429.439;
  configuration ID_43;
}
object underground_line {
  name R4_12_47_2_ul_13;
// downstream 151.11 kva on AS
  phases AN;
  from R4_12_47_2_node_121;
  to R4_12_47_2_node_120;
  length 345.527;
  configuration ID_43;
}
object underground_line {
  name R4_12_47_2_ul_14;
// downstream 142.94 kva on AS
  phases AN;
  from R4_12_47_2_node_120;
  to R4_12_47_2_node_119;
  length 374.286;
  configuration ID_43;
}
object underground_line {
  name R4_12_47_2_ul_15;
// downstream 135.80 kva on AS
  phases AN;
  from R4_12_47_2_node_119;
  to R4_12_47_2_node_118;
  length 208.051;
  configuration ID_43;
}
object underground_line {
  name R4_12_47_2_ul_16;
// downstream 116.41 kva on AS
  phases AN;
  from R4_12_47_2_node_118;
  to R4_12_47_2_node_117;
  length 149.655;
  configuration ID_43;
}
object underground_line {
  name R4_12_47_2_ul_17;
// downstream 70.41 kva on BS
  phases BN;
  from R4_12_47_2_node_130;
  to R4_12_47_2_node_132;
  length 177.601;
  configuration ID_44;
}
object underground_line {
  name R4_12_47_2_ul_18;
// downstream 30.61 kva on BS
  phases BN;
  from R4_12_47_2_node_132;
  to R4_12_47_2_node_131;
  length 301.831;
  configuration ID_44;
}
object underground_line {
  name R4_12_47_2_ul_19;
// downstream 173.47 kva on BS
  phases BN;
  from R4_12_47_2_node_75;
  to R4_12_47_2_node_127;
  length 164.984;
  configuration ID_44;
}
object underground_line {
  name R4_12_47_2_ul_20;
// downstream 118.37 kva on BS
  phases BN;
  from R4_12_47_2_node_127;
  to R4_12_47_2_node_130;
  length 255.840;
  configuration ID_44;
}
object underground_line {
  name R4_12_47_2_ul_21;
// downstream 120.41 kva on CS
  phases CN;
  from R4_12_47_2_node_76;
  to R4_12_47_2_node_128;
  length 278.199;
  configuration ID_42;
}
object underground_line {
  name R4_12_47_2_ul_22;
// downstream 97.96 kva on CS
  phases CN;
  from R4_12_47_2_node_128;
  to R4_12_47_2_node_129;
  length 164.406;
  configuration ID_42;
}
object underground_line {
  name R4_12_47_2_ul_23;
// downstream 75.51 kva on CS
  phases CN;
  from R4_12_47_2_node_129;
  to R4_12_47_2_node_135;
  length 698.268;
  configuration ID_42;
}
object underground_line {
  name R4_12_47_2_ul_24;
// downstream 55.10 kva on CS
  phases CN;
  from R4_12_47_2_node_135;
  to R4_12_47_2_node_134;
  length 139.559;
  configuration ID_42;
}
object underground_line {
  name R4_12_47_2_ul_25;
// downstream 13.27 kva on CS
  phases CN;
  from R4_12_47_2_node_134;
  to R4_12_47_2_node_133;
  length 319.436;
  configuration ID_42;
}
object underground_line {
  name R4_12_47_2_ul_26;
  phases CN;
  from R4_12_47_2_node_133;
  to R4_12_47_2_node_59;
  length 106.692;
  configuration ID_42;
}
object underground_line {
  name R4_12_47_2_ul_27;
// downstream 11.22 kva on A
  phases AN;
  from R4_12_47_2_node_92;
  to R4_12_47_2_node_143;
  length 16.001;
  configuration ID_43;
}
object underground_line {
  name R4_12_47_2_ul_28;
// downstream 2.04 kva on ABC
  phases ABCN;
  from R4_12_47_2_node_93;
  to R4_12_47_2_node_261;
  length 56.103;
  configuration ID_45;
}
object underground_line {
  name R4_12_47_2_ul_29;
// downstream 5.10 kva on ABC
  phases ABCN;
...